*SPEF "ieee 1481-1999"
*DESIGN "user_proj_example"
*DATE "11:11:11 Fri 11 11, 1111"
*VENDOR "OpenRCX"
*PROGRAM "Parallel Extraction"
*VERSION "1.0"
*DESIGN_FLOW "NAME_SCOPE LOCAL" "PIN_CAP NONE"
*DIVIDER /
*DELIMITER :
*BUS_DELIMITER []
*T_UNIT 1 NS
*C_UNIT 1 PF
*R_UNIT 1 OHM
*L_UNIT 1 HENRY

*NAME_MAP
*1 io_in[0]
*2 io_in[10]
*3 io_in[11]
*4 io_in[12]
*5 io_in[13]
*6 io_in[14]
*7 io_in[15]
*8 io_in[16]
*9 io_in[17]
*10 io_in[18]
*11 io_in[19]
*12 io_in[1]
*13 io_in[20]
*14 io_in[21]
*15 io_in[22]
*16 io_in[23]
*17 io_in[24]
*18 io_in[25]
*19 io_in[26]
*20 io_in[27]
*21 io_in[28]
*22 io_in[29]
*23 io_in[2]
*24 io_in[30]
*25 io_in[31]
*26 io_in[32]
*27 io_in[33]
*28 io_in[34]
*29 io_in[35]
*30 io_in[36]
*31 io_in[37]
*32 io_in[3]
*33 io_in[4]
*34 io_in[5]
*35 io_in[6]
*36 io_in[7]
*37 io_in[8]
*38 io_in[9]
*39 io_oeb[0]
*40 io_oeb[10]
*41 io_oeb[11]
*42 io_oeb[12]
*43 io_oeb[13]
*44 io_oeb[14]
*45 io_oeb[15]
*46 io_oeb[16]
*47 io_oeb[17]
*48 io_oeb[18]
*49 io_oeb[19]
*50 io_oeb[1]
*51 io_oeb[20]
*52 io_oeb[21]
*53 io_oeb[22]
*54 io_oeb[23]
*55 io_oeb[24]
*56 io_oeb[25]
*57 io_oeb[26]
*58 io_oeb[27]
*59 io_oeb[28]
*60 io_oeb[29]
*61 io_oeb[2]
*62 io_oeb[30]
*63 io_oeb[31]
*64 io_oeb[32]
*65 io_oeb[33]
*66 io_oeb[34]
*67 io_oeb[35]
*68 io_oeb[36]
*69 net174
*70 io_oeb[3]
*71 io_oeb[4]
*72 io_oeb[5]
*73 io_oeb[6]
*74 io_oeb[7]
*75 io_oeb[8]
*76 io_oeb[9]
*77 io_out[0]
*78 io_out[10]
*79 io_out[11]
*80 io_out[12]
*81 io_out[13]
*82 io_out[14]
*83 io_out[15]
*84 io_out[16]
*85 io_out[17]
*86 io_out[18]
*87 io_out[19]
*88 io_out[1]
*89 io_out[20]
*90 io_out[21]
*91 io_out[22]
*92 io_out[23]
*93 io_out[24]
*94 io_out[25]
*95 io_out[26]
*96 io_out[27]
*97 io_out[28]
*98 io_out[29]
*99 io_out[2]
*100 io_out[30]
*101 io_out[31]
*102 net175
*103 net176
*104 net177
*105 net178
*106 net179
*107 net180
*108 io_out[3]
*109 io_out[4]
*110 io_out[5]
*111 io_out[6]
*112 io_out[7]
*113 io_out[8]
*114 io_out[9]
*115 net181
*116 net182
*117 net183
*118 la_data_in[0]
*119 la_data_in[100]
*120 la_data_in[101]
*121 la_data_in[102]
*122 la_data_in[103]
*123 la_data_in[104]
*124 la_data_in[105]
*125 la_data_in[106]
*126 la_data_in[107]
*127 la_data_in[108]
*128 la_data_in[109]
*129 la_data_in[10]
*130 la_data_in[110]
*131 la_data_in[111]
*132 la_data_in[112]
*133 la_data_in[113]
*134 la_data_in[114]
*135 la_data_in[115]
*136 la_data_in[116]
*137 la_data_in[117]
*138 la_data_in[118]
*139 la_data_in[119]
*140 la_data_in[11]
*141 la_data_in[120]
*142 la_data_in[121]
*143 la_data_in[122]
*144 la_data_in[123]
*145 la_data_in[124]
*146 la_data_in[125]
*147 la_data_in[126]
*148 la_data_in[127]
*149 la_data_in[12]
*150 la_data_in[13]
*151 la_data_in[14]
*152 la_data_in[15]
*153 la_data_in[16]
*154 la_data_in[17]
*155 la_data_in[18]
*156 la_data_in[19]
*157 la_data_in[1]
*158 la_data_in[20]
*159 la_data_in[21]
*160 la_data_in[22]
*161 la_data_in[23]
*162 la_data_in[24]
*163 la_data_in[25]
*164 la_data_in[26]
*165 la_data_in[27]
*166 la_data_in[28]
*167 la_data_in[29]
*168 la_data_in[2]
*169 la_data_in[30]
*170 la_data_in[31]
*171 la_data_in[32]
*172 la_data_in[33]
*173 la_data_in[34]
*174 la_data_in[35]
*175 la_data_in[36]
*176 la_data_in[37]
*177 la_data_in[38]
*178 la_data_in[39]
*179 la_data_in[3]
*180 la_data_in[40]
*181 la_data_in[41]
*182 la_data_in[42]
*183 la_data_in[43]
*184 la_data_in[44]
*185 la_data_in[45]
*186 la_data_in[46]
*187 la_data_in[47]
*188 la_data_in[48]
*189 la_data_in[49]
*190 la_data_in[4]
*191 la_data_in[50]
*192 la_data_in[51]
*193 la_data_in[52]
*194 la_data_in[53]
*195 la_data_in[54]
*196 la_data_in[55]
*197 la_data_in[56]
*198 la_data_in[57]
*199 la_data_in[58]
*200 la_data_in[59]
*201 la_data_in[5]
*202 la_data_in[60]
*203 la_data_in[61]
*204 la_data_in[62]
*205 la_data_in[63]
*206 la_data_in[64]
*207 la_data_in[65]
*208 la_data_in[66]
*209 la_data_in[67]
*210 la_data_in[68]
*211 la_data_in[69]
*212 la_data_in[6]
*213 la_data_in[70]
*214 la_data_in[71]
*215 la_data_in[72]
*216 la_data_in[73]
*217 la_data_in[74]
*218 la_data_in[75]
*219 la_data_in[76]
*220 la_data_in[77]
*221 la_data_in[78]
*222 la_data_in[79]
*223 la_data_in[7]
*224 la_data_in[80]
*225 la_data_in[81]
*226 la_data_in[82]
*227 la_data_in[83]
*228 la_data_in[84]
*229 la_data_in[85]
*230 la_data_in[86]
*231 la_data_in[87]
*232 la_data_in[88]
*233 la_data_in[89]
*234 la_data_in[8]
*235 la_data_in[90]
*236 la_data_in[91]
*237 la_data_in[92]
*238 la_data_in[93]
*239 la_data_in[94]
*240 la_data_in[95]
*241 la_data_in[96]
*242 la_data_in[97]
*243 la_data_in[98]
*244 la_data_in[99]
*245 la_data_in[9]
*246 net184
*247 net284
*248 net285
*249 net286
*250 net287
*251 net288
*252 net289
*253 net290
*254 net291
*255 net292
*256 net293
*257 net194
*258 net294
*259 net295
*260 net296
*261 net297
*262 net298
*263 net299
*264 net300
*265 net301
*266 net302
*267 net303
*268 net195
*269 net304
*270 net305
*271 net306
*272 net307
*273 net308
*274 net309
*275 net310
*276 net311
*277 net196
*278 net197
*279 net198
*280 net199
*281 net200
*282 net201
*283 net202
*284 net203
*285 net185
*286 net204
*287 net205
*288 net206
*289 net207
*290 net208
*291 net209
*292 net210
*293 net211
*294 net212
*295 net213
*296 net186
*297 net214
*298 net215
*299 net216
*300 net217
*301 net218
*302 net219
*303 net220
*304 net221
*305 net222
*306 net223
*307 net187
*308 net224
*309 net225
*310 net226
*311 net227
*312 net228
*313 net229
*314 net230
*315 net231
*316 net232
*317 net233
*318 net188
*319 net234
*320 net235
*321 net236
*322 net237
*323 net238
*324 net239
*325 net240
*326 net241
*327 net242
*328 net243
*329 net189
*330 net244
*331 net245
*332 net246
*333 net247
*334 net248
*335 net249
*336 net250
*337 net251
*338 net252
*339 net253
*340 net190
*341 net254
*342 net255
*343 net256
*344 net257
*345 net258
*346 net259
*347 net260
*348 net261
*349 net262
*350 net263
*351 net191
*352 net264
*353 net265
*354 net266
*355 net267
*356 net268
*357 net269
*358 net270
*359 net271
*360 net272
*361 net273
*362 net192
*363 net274
*364 net275
*365 net276
*366 net277
*367 net278
*368 net279
*369 net280
*370 net281
*371 net282
*372 net283
*373 net193
*374 la_oenb[0]
*375 la_oenb[100]
*376 la_oenb[101]
*377 la_oenb[102]
*378 la_oenb[103]
*379 la_oenb[104]
*380 la_oenb[105]
*381 la_oenb[106]
*382 la_oenb[107]
*383 la_oenb[108]
*384 la_oenb[109]
*385 la_oenb[10]
*386 la_oenb[110]
*387 la_oenb[111]
*388 la_oenb[112]
*389 la_oenb[113]
*390 la_oenb[114]
*391 la_oenb[115]
*392 la_oenb[116]
*393 la_oenb[117]
*394 la_oenb[118]
*395 la_oenb[119]
*396 la_oenb[11]
*397 la_oenb[120]
*398 la_oenb[121]
*399 la_oenb[122]
*400 la_oenb[123]
*401 la_oenb[124]
*402 la_oenb[125]
*403 la_oenb[126]
*404 la_oenb[127]
*405 la_oenb[12]
*406 la_oenb[13]
*407 la_oenb[14]
*408 la_oenb[15]
*409 la_oenb[16]
*410 la_oenb[17]
*411 la_oenb[18]
*412 la_oenb[19]
*413 la_oenb[1]
*414 la_oenb[20]
*415 la_oenb[21]
*416 la_oenb[22]
*417 la_oenb[23]
*418 la_oenb[24]
*419 la_oenb[25]
*420 la_oenb[26]
*421 la_oenb[27]
*422 la_oenb[28]
*423 la_oenb[29]
*424 la_oenb[2]
*425 la_oenb[30]
*426 la_oenb[31]
*427 la_oenb[32]
*428 la_oenb[33]
*429 la_oenb[34]
*430 la_oenb[35]
*431 la_oenb[36]
*432 la_oenb[37]
*433 la_oenb[38]
*434 la_oenb[39]
*435 la_oenb[3]
*436 la_oenb[40]
*437 la_oenb[41]
*438 la_oenb[42]
*439 la_oenb[43]
*440 la_oenb[44]
*441 la_oenb[45]
*442 la_oenb[46]
*443 la_oenb[47]
*444 la_oenb[48]
*445 la_oenb[49]
*446 la_oenb[4]
*447 la_oenb[50]
*448 la_oenb[51]
*449 la_oenb[52]
*450 la_oenb[53]
*451 la_oenb[54]
*452 la_oenb[55]
*453 la_oenb[56]
*454 la_oenb[57]
*455 la_oenb[58]
*456 la_oenb[59]
*457 la_oenb[5]
*458 la_oenb[60]
*459 la_oenb[61]
*460 la_oenb[62]
*461 la_oenb[63]
*462 la_oenb[64]
*463 la_oenb[65]
*464 la_oenb[66]
*465 la_oenb[67]
*466 la_oenb[68]
*467 la_oenb[69]
*468 la_oenb[6]
*469 la_oenb[70]
*470 la_oenb[71]
*471 la_oenb[72]
*472 la_oenb[73]
*473 la_oenb[74]
*474 la_oenb[75]
*475 la_oenb[76]
*476 la_oenb[77]
*477 la_oenb[78]
*478 la_oenb[79]
*479 la_oenb[7]
*480 la_oenb[80]
*481 la_oenb[81]
*482 la_oenb[82]
*483 la_oenb[83]
*484 la_oenb[84]
*485 la_oenb[85]
*486 la_oenb[86]
*487 la_oenb[87]
*488 la_oenb[88]
*489 la_oenb[89]
*490 la_oenb[8]
*491 la_oenb[90]
*492 la_oenb[91]
*493 la_oenb[92]
*494 la_oenb[93]
*495 la_oenb[94]
*496 la_oenb[95]
*497 la_oenb[96]
*498 la_oenb[97]
*499 la_oenb[98]
*500 la_oenb[99]
*501 la_oenb[9]
*504 wb_clk_i
*505 wb_rst_i
*506 net312
*507 wbs_adr_i[0]
*508 wbs_adr_i[10]
*509 wbs_adr_i[11]
*510 wbs_adr_i[12]
*511 wbs_adr_i[13]
*512 wbs_adr_i[14]
*513 wbs_adr_i[15]
*514 wbs_adr_i[16]
*515 wbs_adr_i[17]
*516 wbs_adr_i[18]
*517 wbs_adr_i[19]
*518 wbs_adr_i[1]
*519 wbs_adr_i[20]
*520 wbs_adr_i[21]
*521 wbs_adr_i[22]
*522 wbs_adr_i[23]
*523 wbs_adr_i[24]
*524 wbs_adr_i[25]
*525 wbs_adr_i[26]
*526 wbs_adr_i[27]
*527 wbs_adr_i[28]
*528 wbs_adr_i[29]
*529 wbs_adr_i[2]
*530 wbs_adr_i[30]
*531 wbs_adr_i[31]
*532 wbs_adr_i[3]
*533 wbs_adr_i[4]
*534 wbs_adr_i[5]
*535 wbs_adr_i[6]
*536 wbs_adr_i[7]
*537 wbs_adr_i[8]
*538 wbs_adr_i[9]
*539 wbs_cyc_i
*540 wbs_dat_i[0]
*541 wbs_dat_i[10]
*542 wbs_dat_i[11]
*543 wbs_dat_i[12]
*544 wbs_dat_i[13]
*545 wbs_dat_i[14]
*546 wbs_dat_i[15]
*547 wbs_dat_i[16]
*548 wbs_dat_i[17]
*549 wbs_dat_i[18]
*550 wbs_dat_i[19]
*551 wbs_dat_i[1]
*552 wbs_dat_i[20]
*553 wbs_dat_i[21]
*554 wbs_dat_i[22]
*555 wbs_dat_i[23]
*556 wbs_dat_i[24]
*557 wbs_dat_i[25]
*558 wbs_dat_i[26]
*559 wbs_dat_i[27]
*560 wbs_dat_i[28]
*561 wbs_dat_i[29]
*562 wbs_dat_i[2]
*563 wbs_dat_i[30]
*564 wbs_dat_i[31]
*565 wbs_dat_i[3]
*566 wbs_dat_i[4]
*567 wbs_dat_i[5]
*568 wbs_dat_i[6]
*569 wbs_dat_i[7]
*570 wbs_dat_i[8]
*571 wbs_dat_i[9]
*572 wbs_dat_o[0]
*573 wbs_dat_o[10]
*574 wbs_dat_o[11]
*575 wbs_dat_o[12]
*576 wbs_dat_o[13]
*577 wbs_dat_o[14]
*578 wbs_dat_o[15]
*579 wbs_dat_o[16]
*580 wbs_dat_o[17]
*581 wbs_dat_o[18]
*582 wbs_dat_o[19]
*583 wbs_dat_o[1]
*584 wbs_dat_o[20]
*585 wbs_dat_o[21]
*586 wbs_dat_o[22]
*587 wbs_dat_o[23]
*588 wbs_dat_o[24]
*589 wbs_dat_o[25]
*590 wbs_dat_o[26]
*591 wbs_dat_o[27]
*592 wbs_dat_o[28]
*593 wbs_dat_o[29]
*594 wbs_dat_o[2]
*595 wbs_dat_o[30]
*596 wbs_dat_o[31]
*597 wbs_dat_o[3]
*598 wbs_dat_o[4]
*599 wbs_dat_o[5]
*600 wbs_dat_o[6]
*601 wbs_dat_o[7]
*602 wbs_dat_o[8]
*603 wbs_dat_o[9]
*604 wbs_sel_i[0]
*605 wbs_sel_i[1]
*606 wbs_sel_i[2]
*607 wbs_sel_i[3]
*608 wbs_stb_i
*609 wbs_we_i
*610 _000_
*611 _001_
*612 _002_
*613 _003_
*614 _004_
*615 _005_
*616 _006_
*617 _007_
*618 _008_
*619 _009_
*620 _010_
*621 _011_
*622 _012_
*623 _013_
*624 _014_
*625 _015_
*626 _016_
*627 _017_
*628 _018_
*629 _019_
*630 _020_
*631 _021_
*632 _022_
*633 _023_
*634 _024_
*635 _025_
*636 _026_
*637 _027_
*638 _028_
*639 _029_
*640 _030_
*641 _031_
*642 _032_
*643 _033_
*644 _034_
*645 _035_
*646 _036_
*647 _037_
*648 _038_
*649 _039_
*650 _040_
*651 _041_
*652 _042_
*653 _043_
*654 _044_
*655 _045_
*656 _046_
*657 _047_
*658 _048_
*659 _049_
*660 _050_
*661 _051_
*662 _052_
*663 _053_
*664 _054_
*665 _055_
*666 _056_
*667 _057_
*668 _058_
*669 _059_
*670 _060_
*671 _061_
*672 _062_
*673 _063_
*674 _064_
*675 _065_
*676 _066_
*677 _067_
*678 _068_
*679 _069_
*680 _070_
*681 _071_
*682 _072_
*683 _073_
*684 _074_
*685 _075_
*686 _076_
*687 _077_
*688 _078_
*689 _079_
*690 _080_
*691 _081_
*692 _082_
*693 _083_
*694 _084_
*695 _085_
*696 _086_
*697 _087_
*698 _088_
*699 _089_
*700 _090_
*701 _091_
*702 _092_
*703 _093_
*704 _094_
*705 _095_
*706 _096_
*707 _097_
*708 _098_
*709 _099_
*710 _100_
*711 _101_
*712 _102_
*713 _103_
*714 _104_
*715 _105_
*716 _106_
*717 _107_
*718 _108_
*719 _109_
*720 _110_
*721 _111_
*722 _112_
*723 _113_
*724 _114_
*725 _115_
*726 _116_
*727 _117_
*728 _118_
*729 _119_
*730 _120_
*731 _121_
*732 _122_
*733 _123_
*734 _124_
*735 _125_
*736 _126_
*737 _127_
*738 _128_
*739 _129_
*740 _130_
*741 _131_
*742 _132_
*743 _133_
*744 _134_
*745 _135_
*746 _136_
*747 _137_
*748 _138_
*749 _139_
*750 _140_
*751 _141_
*752 _142_
*753 _143_
*754 _144_
*755 _145_
*756 _146_
*757 _147_
*758 _148_
*759 _149_
*760 _150_
*761 _151_
*762 _152_
*763 _153_
*764 _154_
*765 _155_
*766 _156_
*767 _157_
*768 _158_
*769 _159_
*770 _160_
*771 _161_
*772 _162_
*773 _163_
*774 _164_
*775 _165_
*776 _166_
*777 _167_
*778 _168_
*779 _169_
*780 _170_
*781 _171_
*782 _172_
*783 _173_
*784 _174_
*785 _175_
*786 _176_
*787 _177_
*788 _178_
*789 _179_
*790 _180_
*791 _181_
*792 _182_
*793 _183_
*794 _184_
*795 _185_
*796 _186_
*797 _187_
*798 _188_
*799 _189_
*800 _190_
*801 _191_
*802 _192_
*803 _193_
*804 _194_
*805 _195_
*806 _196_
*807 _197_
*808 _198_
*809 _199_
*810 _200_
*811 _201_
*812 _202_
*813 _203_
*814 _204_
*815 _205_
*816 _206_
*817 _207_
*818 _208_
*819 _209_
*820 _210_
*821 _211_
*822 _212_
*823 _213_
*824 _214_
*825 _215_
*826 _216_
*827 _217_
*828 _218_
*829 _219_
*830 _220_
*831 _221_
*832 _222_
*833 _223_
*834 _224_
*835 _225_
*836 _226_
*837 _227_
*838 _228_
*839 _229_
*840 _230_
*841 _231_
*842 _232_
*843 _233_
*844 _234_
*845 _235_
*846 _236_
*847 _237_
*848 _238_
*849 _239_
*850 _240_
*851 _241_
*852 _242_
*853 _243_
*854 _244_
*855 _245_
*856 _246_
*857 _247_
*858 _248_
*859 _249_
*860 _250_
*861 _251_
*862 _252_
*863 _253_
*864 _254_
*865 bl_address\[0\]
*866 bl_address\[1\]
*867 bl_address\[2\]
*868 bl_address\[3\]
*869 bl_address\[4\]
*870 clk
*871 clknet_0_clk
*872 clknet_1_0_0_clk
*873 clknet_1_1_0_clk
*874 clknet_2_0_0_clk
*875 clknet_2_1_0_clk
*876 clknet_2_2_0_clk
*877 clknet_2_3_0_clk
*878 clknet_3_0_0_clk
*879 clknet_3_1_0_clk
*880 clknet_3_2_0_clk
*881 clknet_3_3_0_clk
*882 clknet_3_4_0_clk
*883 clknet_3_5_0_clk
*884 clknet_3_6_0_clk
*885 clknet_3_7_0_clk
*886 data_in
*887 enable
*888 net1
*889 net10
*890 net100
*891 net101
*892 net102
*893 net103
*894 net104
*895 net105
*896 net106
*897 net107
*898 net108
*899 net109
*900 net11
*901 net110
*902 net111
*903 net112
*904 net113
*905 net114
*906 net115
*907 net116
*908 net117
*909 net118
*910 net119
*911 net12
*912 net120
*913 net121
*914 net122
*915 net123
*916 net124
*917 net125
*918 net126
*919 net127
*920 net128
*921 net129
*922 net13
*923 net130
*924 net131
*925 net132
*926 net133
*927 net134
*928 net135
*929 net136
*930 net137
*931 net138
*932 net139
*933 net14
*934 net140
*935 net141
*936 net142
*937 net143
*938 net144
*939 net145
*940 net146
*941 net147
*942 net148
*943 net149
*944 net15
*945 net150
*946 net151
*947 net152
*948 net153
*949 net154
*950 net155
*951 net156
*952 net157
*953 net158
*954 net159
*955 net16
*956 net160
*957 net161
*958 net162
*959 net163
*960 net164
*961 net165
*962 net166
*963 net167
*964 net168
*965 net169
*966 net17
*967 net170
*968 net171
*969 net172
*970 net173
*971 net18
*972 net19
*973 net2
*974 net20
*975 net21
*976 net22
*977 net23
*978 net24
*979 net25
*980 net26
*981 net27
*982 net28
*983 net29
*984 net3
*985 net30
*986 net31
*987 net32
*988 net33
*989 net34
*990 net35
*991 net36
*992 net37
*993 net38
*994 net39
*995 net4
*996 net40
*997 net41
*998 net42
*999 net43
*1000 net44
*1001 net45
*1002 net46
*1003 net47
*1004 net48
*1005 net49
*1006 net5
*1007 net50
*1008 net51
*1009 net52
*1010 net53
*1011 net54
*1012 net55
*1013 net56
*1014 net57
*1015 net58
*1016 net59
*1017 net6
*1018 net60
*1019 net61
*1020 net62
*1021 net63
*1022 net64
*1023 net65
*1024 net66
*1025 net67
*1026 net68
*1027 net69
*1028 net7
*1029 net70
*1030 net71
*1031 net72
*1032 net73
*1033 net74
*1034 net75
*1035 net76
*1036 net77
*1037 net78
*1038 net79
*1039 net8
*1040 net80
*1041 net81
*1042 net82
*1043 net83
*1044 net84
*1045 net85
*1046 net86
*1047 net87
*1048 net88
*1049 net89
*1050 net9
*1051 net90
*1052 net91
*1053 net92
*1054 net93
*1055 net94
*1056 net95
*1057 net96
*1058 net97
*1059 net98
*1060 net99
*1061 reset
*1062 set
*1063 wl_address\[0\]
*1064 wl_address\[1\]
*1065 wl_address\[2\]
*1066 wl_address\[3\]
*1067 wl_address\[4\]
*1068 ANTENNA__255__A0
*1069 ANTENNA__255__A1
*1070 ANTENNA__255__S
*1071 ANTENNA__257__A_N
*1072 ANTENNA__257__B
*1073 ANTENNA__258__A1
*1074 ANTENNA__258__A2
*1075 ANTENNA__258__B1
*1076 ANTENNA__259__A
*1077 ANTENNA__261__A
*1078 ANTENNA__262__A
*1079 ANTENNA__264__A
*1080 ANTENNA__267__A
*1081 ANTENNA__271__D_N
*1082 ANTENNA__276__A
*1083 ANTENNA__276__B
*1084 ANTENNA__276__C
*1085 ANTENNA__277__B
*1086 ANTENNA__279__A
*1087 ANTENNA__279__B
*1088 ANTENNA__280__B2
*1089 ANTENNA__282__C
*1090 ANTENNA__285__A
*1091 ANTENNA__286__A_N
*1092 ANTENNA__286__B
*1093 ANTENNA__286__C
*1094 ANTENNA__287__B1
*1095 ANTENNA__290__B
*1096 ANTENNA__291__B2
*1097 ANTENNA__293__A0
*1098 ANTENNA__295__B
*1099 ANTENNA__296__B2
*1100 ANTENNA__300__A1
*1101 ANTENNA__302__A
*1102 ANTENNA__302__B
*1103 ANTENNA__305__B
*1104 ANTENNA__306__B
*1105 ANTENNA__307__A
*1106 ANTENNA__307__B
*1107 ANTENNA__308__A1
*1108 ANTENNA__308__B1
*1109 ANTENNA__312__B
*1110 ANTENNA__313__A
*1111 ANTENNA__313__B
*1112 ANTENNA__313__C
*1113 ANTENNA__314__A
*1114 ANTENNA__315__A0
*1115 ANTENNA__315__A1
*1116 ANTENNA__318__A0
*1117 ANTENNA__321__A0
*1118 ANTENNA__324__A0
*1119 ANTENNA__327__A0
*1120 ANTENNA__330__A0
*1121 ANTENNA__330__S
*1122 ANTENNA__333__A0
*1123 ANTENNA__333__S
*1124 ANTENNA__336__A
*1125 ANTENNA__338__A0
*1126 ANTENNA__340__A0
*1127 ANTENNA__340__A1
*1128 ANTENNA__342__A0
*1129 ANTENNA__344__A0
*1130 ANTENNA__346__A0
*1131 ANTENNA__346__A1
*1132 ANTENNA__349__A0
*1133 ANTENNA__349__A1
*1134 ANTENNA__351__A0
*1135 ANTENNA__351__A1
*1136 ANTENNA__353__A0
*1137 ANTENNA__355__A0
*1138 ANTENNA__357__A0
*1139 ANTENNA__360__A0
*1140 ANTENNA__362__A0
*1141 ANTENNA__364__A0
*1142 ANTENNA__366__A0
*1143 ANTENNA__368__A0
*1144 ANTENNA__371__A0
*1145 ANTENNA__373__A0
*1146 ANTENNA__375__A0
*1147 ANTENNA__377__A0
*1148 ANTENNA__379__A0
*1149 ANTENNA__381__A0
*1150 ANTENNA__383__A
*1151 ANTENNA__383__B
*1152 ANTENNA__383__C
*1153 ANTENNA__384__A
*1154 ANTENNA__384__B
*1155 ANTENNA__387__A
*1156 ANTENNA__387__B
*1157 ANTENNA__389__A
*1158 ANTENNA__390__A
*1159 ANTENNA__391__A1
*1160 ANTENNA__391__C1
*1161 ANTENNA__392__A
*1162 ANTENNA__393__A1
*1163 ANTENNA__393__C1
*1164 ANTENNA__394__A
*1165 ANTENNA__395__A1
*1166 ANTENNA__395__C1
*1167 ANTENNA__396__A
*1168 ANTENNA__397__C1
*1169 ANTENNA__398__A
*1170 ANTENNA__399__A
*1171 ANTENNA__400__A
*1172 ANTENNA__403__A
*1173 ANTENNA__404__A
*1174 ANTENNA__405__A1
*1175 ANTENNA__406__A
*1176 ANTENNA__408__A
*1177 ANTENNA__410__A
*1178 ANTENNA__412__A
*1179 ANTENNA__413__A
*1180 ANTENNA__416__A
*1181 ANTENNA__417__A
*1182 ANTENNA__418__A1
*1183 ANTENNA__418__A2
*1184 ANTENNA__419__A
*1185 ANTENNA__420__A2
*1186 ANTENNA__421__A
*1187 ANTENNA__422__A2
*1188 ANTENNA__422__B1
*1189 ANTENNA__423__A
*1190 ANTENNA__424__A2
*1191 ANTENNA__425__A
*1192 ANTENNA__426__A
*1193 ANTENNA__427__A2
*1194 ANTENNA__430__A
*1195 ANTENNA__432__A
*1196 ANTENNA__434__A
*1197 ANTENNA__436__A
*1198 ANTENNA__438__A
*1199 ANTENNA__443__A
*1200 ANTENNA__445__A
*1201 ANTENNA__447__A
*1202 ANTENNA__449__A
*1203 ANTENNA__451__A
*1204 ANTENNA__456__A
*1205 ANTENNA__458__A
*1206 ANTENNA__460__A
*1207 ANTENNA__462__A
*1208 ANTENNA__464__A
*1209 ANTENNA__466__C1
*1210 ANTENNA__467__A
*1211 ANTENNA__467__B
*1212 ANTENNA__468__C1
*1213 ANTENNA__469__A
*1214 ANTENNA__469__B
*1215 ANTENNA__470__C1
*1216 ANTENNA__471__A
*1217 ANTENNA__471__B
*1218 ANTENNA__471__C
*1219 ANTENNA__472__A
*1220 ANTENNA__474__A
*1221 ANTENNA__477__A1
*1222 ANTENNA__477__C1
*1223 ANTENNA__479__A1
*1224 ANTENNA__479__C1
*1225 ANTENNA__482__A1
*1226 ANTENNA__485__A
*1227 ANTENNA__489__B
*1228 ANTENNA__490__A1
*1229 ANTENNA__490__B1
*1230 ANTENNA__491__B
*1231 ANTENNA__493__B
*1232 ANTENNA__494__A
*1233 ANTENNA__495__C1
*1234 ANTENNA__496__B
*1235 ANTENNA__497__C1
*1236 ANTENNA__498__B
*1237 ANTENNA__499__B1
*1238 ANTENNA__499__C1
*1239 ANTENNA__501__A1
*1240 ANTENNA__501__C1
*1241 ANTENNA__502__B
*1242 ANTENNA__502__C
*1243 ANTENNA__503__A0
*1244 ANTENNA__504__A
*1245 ANTENNA__506__A0
*1246 ANTENNA__507__A
*1247 ANTENNA__509__A0
*1248 ANTENNA__510__A
*1249 ANTENNA__526__CLK
*1250 ANTENNA__527__CLK
*1251 ANTENNA__556__D
*1252 ANTENNA__578__CLK
*1253 ANTENNA__579__CLK
*1254 ANTENNA__581__CLK
*1255 ANTENNA__582__CLK
*1256 ANTENNA__583__CLK
*1257 ANTENNA__584__CLK
*1258 ANTENNA__588__CLK
*1259 ANTENNA__729__A
*1260 ANTENNA__730__A
*1261 ANTENNA__731__A
*1262 ANTENNA__732__A
*1263 ANTENNA__733__A
*1264 ANTENNA__734__A
*1265 ANTENNA__735__A
*1266 ANTENNA__736__A
*1267 ANTENNA__737__A
*1268 ANTENNA__738__A
*1269 ANTENNA__739__A
*1270 ANTENNA__740__A
*1271 ANTENNA__741__A
*1272 ANTENNA__742__A
*1273 ANTENNA__743__A
*1274 ANTENNA__744__A
*1275 ANTENNA__745__A
*1276 ANTENNA__746__A
*1277 ANTENNA__747__A
*1278 ANTENNA__748__A
*1279 ANTENNA__749__A
*1280 ANTENNA__750__A
*1281 ANTENNA__751__A
*1282 ANTENNA__752__A
*1283 ANTENNA__753__A
*1284 ANTENNA__754__A
*1285 ANTENNA__755__A
*1286 ANTENNA__756__A
*1287 ANTENNA__757__A
*1288 ANTENNA__758__A
*1289 ANTENNA__759__A
*1290 ANTENNA__760__A
*1291 ANTENNA__761__A
*1292 ANTENNA__762__A
*1293 ANTENNA__763__A
*1294 ANTENNA__764__A
*1295 ANTENNA_clkbuf_0_clk_A
*1296 ANTENNA_clkbuf_3_0_0_clk_A
*1297 ANTENNA_clkbuf_3_1_0_clk_A
*1298 ANTENNA_clkbuf_3_2_0_clk_A
*1299 ANTENNA_clkbuf_3_3_0_clk_A
*1300 ANTENNA_input10_A
*1301 ANTENNA_input11_A
*1302 ANTENNA_input12_A
*1303 ANTENNA_input13_A
*1304 ANTENNA_input14_A
*1305 ANTENNA_input15_A
*1306 ANTENNA_input16_A
*1307 ANTENNA_input17_A
*1308 ANTENNA_input18_A
*1309 ANTENNA_input19_A
*1310 ANTENNA_input1_A
*1311 ANTENNA_input20_A
*1312 ANTENNA_input21_A
*1313 ANTENNA_input22_A
*1314 ANTENNA_input23_A
*1315 ANTENNA_input24_A
*1316 ANTENNA_input25_A
*1317 ANTENNA_input26_A
*1318 ANTENNA_input27_A
*1319 ANTENNA_input28_A
*1320 ANTENNA_input29_A
*1321 ANTENNA_input2_A
*1322 ANTENNA_input30_A
*1323 ANTENNA_input31_A
*1324 ANTENNA_input32_A
*1325 ANTENNA_input33_A
*1326 ANTENNA_input34_A
*1327 ANTENNA_input35_A
*1328 ANTENNA_input36_A
*1329 ANTENNA_input37_A
*1330 ANTENNA_input38_A
*1331 ANTENNA_input39_A
*1332 ANTENNA_input3_A
*1333 ANTENNA_input40_A
*1334 ANTENNA_input41_A
*1335 ANTENNA_input42_A
*1336 ANTENNA_input43_A
*1337 ANTENNA_input44_A
*1338 ANTENNA_input45_A
*1339 ANTENNA_input46_A
*1340 ANTENNA_input47_A
*1341 ANTENNA_input48_A
*1342 ANTENNA_input49_A
*1343 ANTENNA_input4_A
*1344 ANTENNA_input50_A
*1345 ANTENNA_input51_A
*1346 ANTENNA_input52_A
*1347 ANTENNA_input53_A
*1348 ANTENNA_input54_A
*1349 ANTENNA_input55_A
*1350 ANTENNA_input56_A
*1351 ANTENNA_input57_A
*1352 ANTENNA_input58_A
*1353 ANTENNA_input59_A
*1354 ANTENNA_input5_A
*1355 ANTENNA_input60_A
*1356 ANTENNA_input61_A
*1357 ANTENNA_input62_A
*1358 ANTENNA_input63_A
*1359 ANTENNA_input64_A
*1360 ANTENNA_input65_A
*1361 ANTENNA_input66_A
*1362 ANTENNA_input67_A
*1363 ANTENNA_input68_A
*1364 ANTENNA_input69_A
*1365 ANTENNA_input6_A
*1366 ANTENNA_input70_A
*1367 ANTENNA_input71_A
*1368 ANTENNA_input72_A
*1369 ANTENNA_input7_A
*1370 ANTENNA_input8_A
*1371 ANTENNA_input9_A
*1372 ANTENNA_output102_A
*1373 ANTENNA_output110_A
*1374 ANTENNA_output111_A
*1375 ANTENNA_output112_A
*1376 ANTENNA_output113_A
*1377 ANTENNA_output114_A
*1378 ANTENNA_output115_A
*1379 ANTENNA_output116_A
*1380 ANTENNA_output117_A
*1381 ANTENNA_output118_A
*1382 ANTENNA_output119_A
*1383 ANTENNA_output120_A
*1384 ANTENNA_output121_A
*1385 ANTENNA_output122_A
*1386 ANTENNA_output123_A
*1387 ANTENNA_output124_A
*1388 ANTENNA_output125_A
*1389 ANTENNA_output126_A
*1390 ANTENNA_output127_A
*1391 ANTENNA_output128_A
*1392 ANTENNA_output129_A
*1393 ANTENNA_output130_A
*1394 ANTENNA_output131_A
*1395 ANTENNA_output132_A
*1396 ANTENNA_output133_A
*1397 ANTENNA_output134_A
*1398 ANTENNA_output135_A
*1399 ANTENNA_output136_A
*1400 ANTENNA_output137_A
*1401 ANTENNA_output138_A
*1402 ANTENNA_output139_A
*1403 ANTENNA_output140_A
*1404 ANTENNA_output141_A
*1405 ANTENNA_output145_A
*1406 ANTENNA_output148_A
*1407 ANTENNA_output149_A
*1408 ANTENNA_output150_A
*1409 ANTENNA_output153_A
*1410 FILLER_0_1001
*1411 FILLER_0_1007
*1412 FILLER_0_1009
*1413 FILLER_0_1013
*1414 FILLER_0_1021
*1415 FILLER_0_1025
*1416 FILLER_0_103
*1417 FILLER_0_1033
*1418 FILLER_0_1040
*1419 FILLER_0_1044
*1420 FILLER_0_1048
*1421 FILLER_0_1056
*1422 FILLER_0_1060
*1423 FILLER_0_1065
*1424 FILLER_0_1072
*1425 FILLER_0_108
*1426 FILLER_0_1080
*1427 FILLER_0_1084
*1428 FILLER_0_1096
*1429 FILLER_0_1104
*1430 FILLER_0_1108
*1431 FILLER_0_1124
*1432 FILLER_0_1128
*1433 FILLER_0_1132
*1434 FILLER_0_1140
*1435 FILLER_0_1144
*1436 FILLER_0_1149
*1437 FILLER_0_1156
*1438 FILLER_0_1167
*1439 FILLER_0_1175
*1440 FILLER_0_1177
*1441 FILLER_0_1185
*1442 FILLER_0_1200
*1443 FILLER_0_1208
*1444 FILLER_0_1215
*1445 FILLER_0_1223
*1446 FILLER_0_1227
*1447 FILLER_0_123
*1448 FILLER_0_1231
*1449 FILLER_0_1233
*1450 FILLER_0_1239
*1451 FILLER_0_1247
*1452 FILLER_0_1251
*1453 FILLER_0_1259
*1454 FILLER_0_1264
*1455 FILLER_0_1275
*1456 FILLER_0_1287
*1457 FILLER_0_1292
*1458 FILLER_0_1299
*1459 FILLER_0_1310
*1460 FILLER_0_1317
*1461 FILLER_0_1322
*1462 FILLER_0_1330
*1463 FILLER_0_1334
*1464 FILLER_0_1342
*1465 FILLER_0_1348
*1466 FILLER_0_1354
*1467 FILLER_0_1358
*1468 FILLER_0_136
*1469 FILLER_0_1370
*1470 FILLER_0_1376
*1471 FILLER_0_1383
*1472 FILLER_0_1394
*1473 FILLER_0_1401
*1474 FILLER_0_1406
*1475 FILLER_0_141
*1476 FILLER_0_1414
*1477 FILLER_0_1418
*1478 FILLER_0_1426
*1479 FILLER_0_1432
*1480 FILLER_0_1441
*1481 FILLER_0_1453
*1482 FILLER_0_1460
*1483 FILLER_0_1467
*1484 FILLER_0_1473
*1485 FILLER_0_1477
*1486 FILLER_0_148
*1487 FILLER_0_1483
*1488 FILLER_0_1485
*1489 FILLER_0_1489
*1490 FILLER_0_1497
*1491 FILLER_0_1501
*1492 FILLER_0_1509
*1493 FILLER_0_1516
*1494 FILLER_0_1525
*1495 FILLER_0_1537
*1496 FILLER_0_1544
*1497 FILLER_0_1551
*1498 FILLER_0_1560
*1499 FILLER_0_1572
*1500 FILLER_0_1580
*1501 FILLER_0_1584
*1502 FILLER_0_1600
*1503 FILLER_0_1604
*1504 FILLER_0_1608
*1505 FILLER_0_1616
*1506 FILLER_0_162
*1507 FILLER_0_1620
*1508 FILLER_0_1625
*1509 FILLER_0_1632
*1510 FILLER_0_1640
*1511 FILLER_0_1644
*1512 FILLER_0_1656
*1513 FILLER_0_1664
*1514 FILLER_0_1668
*1515 FILLER_0_1684
*1516 FILLER_0_169
*1517 FILLER_0_1691
*1518 FILLER_0_1699
*1519 FILLER_0_1703
*1520 FILLER_0_1707
*1521 FILLER_0_1709
*1522 FILLER_0_1715
*1523 FILLER_0_1723
*1524 FILLER_0_1727
*1525 FILLER_0_1735
*1526 FILLER_0_1740
*1527 FILLER_0_1751
*1528 FILLER_0_1763
*1529 FILLER_0_1768
*1530 FILLER_0_1775
*1531 FILLER_0_1783
*1532 FILLER_0_1787
*1533 FILLER_0_179
*1534 FILLER_0_1791
*1535 FILLER_0_1793
*1536 FILLER_0_1799
*1537 FILLER_0_1807
*1538 FILLER_0_1811
*1539 FILLER_0_1819
*1540 FILLER_0_1824
*1541 FILLER_0_1830
*1542 FILLER_0_1834
*1543 FILLER_0_1846
*1544 FILLER_0_1852
*1545 FILLER_0_1859
*1546 FILLER_0_1870
*1547 FILLER_0_1877
*1548 FILLER_0_1882
*1549 FILLER_0_1890
*1550 FILLER_0_1894
*1551 FILLER_0_1902
*1552 FILLER_0_1908
*1553 FILLER_0_1914
*1554 FILLER_0_1918
*1555 FILLER_0_192
*1556 FILLER_0_1925
*1557 FILLER_0_199
*1558 FILLER_0_219
*1559 FILLER_0_223
*1560 FILLER_0_23
*1561 FILLER_0_241
*1562 FILLER_0_248
*1563 FILLER_0_269
*1564 FILLER_0_27
*1565 FILLER_0_276
*1566 FILLER_0_281
*1567 FILLER_0_285
*1568 FILLER_0_3
*1569 FILLER_0_302
*1570 FILLER_0_309
*1571 FILLER_0_329
*1572 FILLER_0_335
*1573 FILLER_0_347
*1574 FILLER_0_360
*1575 FILLER_0_365
*1576 FILLER_0_369
*1577 FILLER_0_386
*1578 FILLER_0_39
*1579 FILLER_0_393
*1580 FILLER_0_401
*1581 FILLER_0_409
*1582 FILLER_0_415
*1583 FILLER_0_419
*1584 FILLER_0_425
*1585 FILLER_0_433
*1586 FILLER_0_441
*1587 FILLER_0_447
*1588 FILLER_0_452
*1589 FILLER_0_459
*1590 FILLER_0_466
*1591 FILLER_0_472
*1592 FILLER_0_480
*1593 FILLER_0_489
*1594 FILLER_0_49
*1595 FILLER_0_501
*1596 FILLER_0_508
*1597 FILLER_0_515
*1598 FILLER_0_524
*1599 FILLER_0_536
*1600 FILLER_0_544
*1601 FILLER_0_548
*1602 FILLER_0_55
*1603 FILLER_0_564
*1604 FILLER_0_568
*1605 FILLER_0_572
*1606 FILLER_0_580
*1607 FILLER_0_584
*1608 FILLER_0_589
*1609 FILLER_0_596
*1610 FILLER_0_604
*1611 FILLER_0_608
*1612 FILLER_0_61
*1613 FILLER_0_620
*1614 FILLER_0_628
*1615 FILLER_0_632
*1616 FILLER_0_648
*1617 FILLER_0_655
*1618 FILLER_0_663
*1619 FILLER_0_667
*1620 FILLER_0_671
*1621 FILLER_0_673
*1622 FILLER_0_679
*1623 FILLER_0_687
*1624 FILLER_0_691
*1625 FILLER_0_699
*1626 FILLER_0_704
*1627 FILLER_0_715
*1628 FILLER_0_727
*1629 FILLER_0_732
*1630 FILLER_0_739
*1631 FILLER_0_747
*1632 FILLER_0_75
*1633 FILLER_0_751
*1634 FILLER_0_755
*1635 FILLER_0_757
*1636 FILLER_0_763
*1637 FILLER_0_771
*1638 FILLER_0_775
*1639 FILLER_0_783
*1640 FILLER_0_788
*1641 FILLER_0_794
*1642 FILLER_0_798
*1643 FILLER_0_810
*1644 FILLER_0_816
*1645 FILLER_0_823
*1646 FILLER_0_83
*1647 FILLER_0_834
*1648 FILLER_0_841
*1649 FILLER_0_846
*1650 FILLER_0_854
*1651 FILLER_0_858
*1652 FILLER_0_866
*1653 FILLER_0_872
*1654 FILLER_0_878
*1655 FILLER_0_882
*1656 FILLER_0_894
*1657 FILLER_0_9
*1658 FILLER_0_900
*1659 FILLER_0_907
*1660 FILLER_0_913
*1661 FILLER_0_917
*1662 FILLER_0_923
*1663 FILLER_0_925
*1664 FILLER_0_929
*1665 FILLER_0_937
*1666 FILLER_0_941
*1667 FILLER_0_949
*1668 FILLER_0_95
*1669 FILLER_0_956
*1670 FILLER_0_965
*1671 FILLER_0_977
*1672 FILLER_0_984
*1673 FILLER_0_991
*1674 FILLER_0_997
*1675 FILLER_100_1005
*1676 FILLER_100_1017
*1677 FILLER_100_1029
*1678 FILLER_100_1035
*1679 FILLER_100_1037
*1680 FILLER_100_1049
*1681 FILLER_100_1061
*1682 FILLER_100_1073
*1683 FILLER_100_1085
*1684 FILLER_100_109
*1685 FILLER_100_1091
*1686 FILLER_100_1093
*1687 FILLER_100_1105
*1688 FILLER_100_1117
*1689 FILLER_100_1129
*1690 FILLER_100_1141
*1691 FILLER_100_1147
*1692 FILLER_100_1149
*1693 FILLER_100_1161
*1694 FILLER_100_1173
*1695 FILLER_100_1185
*1696 FILLER_100_1197
*1697 FILLER_100_1203
*1698 FILLER_100_1205
*1699 FILLER_100_121
*1700 FILLER_100_1217
*1701 FILLER_100_1229
*1702 FILLER_100_1241
*1703 FILLER_100_1253
*1704 FILLER_100_1259
*1705 FILLER_100_1261
*1706 FILLER_100_1273
*1707 FILLER_100_1285
*1708 FILLER_100_1297
*1709 FILLER_100_1309
*1710 FILLER_100_1315
*1711 FILLER_100_1317
*1712 FILLER_100_1329
*1713 FILLER_100_133
*1714 FILLER_100_1341
*1715 FILLER_100_1353
*1716 FILLER_100_1365
*1717 FILLER_100_1371
*1718 FILLER_100_1373
*1719 FILLER_100_1385
*1720 FILLER_100_139
*1721 FILLER_100_1397
*1722 FILLER_100_1409
*1723 FILLER_100_141
*1724 FILLER_100_1421
*1725 FILLER_100_1427
*1726 FILLER_100_1429
*1727 FILLER_100_1441
*1728 FILLER_100_1453
*1729 FILLER_100_1465